LTspice 26.0.2 for Windows
Circuit: C:\Users\Himank\Desktop\Beasts-of-bits-Submission\Beyond_Bits_Submission_with_already_used_commands\LTSpice\Modulator_with_demod_FIXED.net
Start Time: Thu Jul  9 13:13:07 2026
solver = Normal
Maximum thread count: 16
tnom = 27
temp = 27
method = trap
.OP point found by inspection.
.OP point found by inspection.
Total elapsed time: 4.307 seconds.

Files loaded:
C:\Users\Himank\Desktop\Beasts-of-bits-Submission\Beyond_Bits_Submission_with_already_used_commands\LTSpice\Modulator_with_demod_FIXED.net
C:\Users\Himank\AppData\Local\LTspice\lib\cmp\standard.dio

